/*--------------------------------*- C++ -*----------------------------------*\
  =========                 |
  \\      /  F ield         | OpenFOAM: The Open Source CFD Toolbox
   \\    /   O peration     | Website:  https://openfoam.org
    \\  /    A nd           | Version:  10
     \\/     M anipulation  |
\*---------------------------------------------------------------------------*/
FoamFile
{
    version         2;
    format          ascii;
    class           dictionary;
    location        "system";
    object          controlDict;
}
// * * * * * * * * * * * * * * * * * * * * * * * * * * * * * * * * * * * * * //

application     rhoReactingBuoyantFoam;

startFrom       latestTime;

startTime       latestTime;

stopAt          endTime;

endTime         10;

deltaT          0.001;

maxCo           1;

maxDeltaT       0.1;

adjustTimeStep  yes;

writeControl    adjustableRunTime;

writeInterval   1;

writeFormat     ascii;

writePrecision  12;

writeCompression off;

timeFormat      general;

timePrecision   9;

runTimeModifiable yes;


// ************************************************************************* //
