/*--------------------------------*- C++ -*----------------------------------*\
| =========                 |                                                 |
| \\      /  F ield         | OpenFOAM: The Open Source CFD Toolbox           |
|  \\    /   O peration     | Version:  2406                                  |
|   \\  /    A nd           | Website:  www.openfoam.com                      |
|    \\/     M anipulation  |                                                 |
\*---------------------------------------------------------------------------*/

FoamFile
{
    version     2.0;
    format      ascii;
    class       uniformDimensionedScalarField;
    location    "constant";
    object      hRef;
}

// ************************************************************************* //

dimensions      [0 1 0 0 0 0 0];    // Length dimension (typically meters)
value           0;                  // Your reference height (zero works fine here)

// ************************************************************************* //
