/*--------------------------------*- C++ -*----------------------------------*\
| =========                 |                                                 |
| \\      /  Field          | OpenFOAM: The Open Source CFD Toolbox           |
|  \\    /   Operation      | Version:  v2406                                 |
|   \\  /    And            | Web:      www.OpenFOAM.com                      |
|    \\/     Manipulation   |                                                 |
\*---------------------------------------------------------------------------*/

FoamFile
{
    version     2.0;
    format      ascii;
    class       volScalarField;
    location    "0";
    object      H2;
}

// * * * * * * * * * * * * * * * * * * * * * * * * * * * * * * * * * * * * * //

dimensions      [0 0 0 0 0 0 0];

internalField   uniform 0;   // Initially no H2 in the domain

boundaryField
{
    inlet
    {
        type            fixedValue;
        value           uniform 0; // No H2 in the inlet air
    }

    outlet
    {
        type            inletOutlet;
        inletValue      uniform 0;
        value           uniform 0;
    }

    h2leak
    {
        type            fixedValue;
        value           uniform 1;  // Pure hydrogen at the leak
    }

    bottomWall
    {
        type            zeroGradient;
    }

    top
    {
        type            inletOutlet;
        inletValue      uniform 0;
        value           uniform 0;
    }

    front
    {
        type            inletOutlet;
        inletValue      uniform 0;
        value           uniform 0;
    }
    
    back
    {
        type            inletOutlet;
        inletValue      uniform 0;
        value           uniform 0;
    }
}

// ************************************************************************* //
