/*--------------------------------*- C++ -*----------------------------------*\
| =========                 |                                                 |
| \\      /  Field          | OpenFOAM: The Open Source CFD Toolbox           |
|  \\    /   Operation      | Version:  v2406                                 |
\*---------------------------------------------------------------------------*/

FoamFile
{
    version     2.0;
    format      ascii;
    class       volScalarField;
    location    "0";
    object      p;
}

// * * * * * * * * * * * * * * * * * * * * * * * * * * * * * * * * * * * * * //

dimensions      [1 -1 -2 0 0 0 0];

internalField   uniform 101325;

boundaryField
{
    inlet
    {
        type            calculated;
        value           $internalField;
    }

    outlet
    {
        type            calculated;
        value           $internalField;
    }

    h2leak
    {
        type            calculated;
        value           $internalField;
    }

    bottomWall
    {
        type            calculated;
        value           $internalField;
    }

    top
    {
        type            calculated;
        value           $internalField;
    }

    front
    {
        type            calculated;
        value           $internalField;
    }

    back
    {
        type            calculated;
        value           $internalField;
    }


}

// ************************************************************************* //
